Circuit: * C:\KiCAD\PoE Speaker v1\PoESpeakerPrj\DART_6UL_BREAKOUT\Daughterboards\Audio_Breakout\Draft1.asc

Direct Newton iteration for .op point succeeded.

Date: Fri Mar 29 00:06:15 2019
Total elapsed time: 0.067 seconds.

tnom = 27
temp = 27
method = modified trap
totiter = 3793
traniter = 3787
tranpoints = 1562
accept = 1413
rejected = 149
matrix size = 9
fillins = 0
solver = Normal
Matrix Compiler1: off  [0.0]/0.0/0.1
Matrix Compiler2: 633 bytes object code size  0.1/0.1/[0.0]

